*HEADING
cubit(/g/g20/herbold1/Research/LGD_jobs/ASTEROID/test.inp): 02/06/2012: 11:23:46
version: 13.0
**
********************************** P A R T S **********************************
*PART, NAME=Part-Default
**
********************************** N O D E S **********************************
*NODE, NSET=ALLNODES
       1,    1.890549e+05,    0.000000e+00,   -1.643426e+05
     309,    1.890548e+05,    1.162081e+05,   -1.162076e+05
     310,    1.890545e+05,    1.643431e+05,    5.695843e-01
     311,    1.890541e+05,    1.162081e+05,    1.162087e+05
     312,    1.890540e+05,    3.356854e-06,    1.643437e+05
     313,    1.890541e+05,   -1.162081e+05,    1.162087e+05
     314,    1.890545e+05,   -1.643431e+05,    5.695908e-01
     315,    1.890548e+05,   -1.162081e+05,   -1.162076e+05
     316,    2.382682e+05,    1.070206e+03,   -7.731352e+04
     317,    2.314366e+05,    6.834446e+04,   -6.720419e+04
     318,    2.313174e+05,    6.829473e+04,    6.766337e+04
     319,    2.380953e+05,    9.771510e+02,    7.784557e+04
     320,    2.385711e+05,   -7.638092e+04,    1.480817e+02
     321,    2.316443e+05,   -6.739419e+04,   -6.744772e+04
     322,    2.382895e+05,    7.725482e+04,    2.803971e+02
     323,    2.504986e+05,    6.616818e+02,    5.118838e+02
     324,    2.316116e+05,   -6.743469e+04,    6.751931e+04
     325,    1.886776e+05,    0.000000e+00,   -1.640145e+05
     326,    1.886774e+05,   -1.159762e+05,   -1.159756e+05
     327,    1.886771e+05,   -1.640151e+05,    5.695895e-01
** ... 14 like lines cut
**
********************************** E L E M E N T S ****************************
*ELEMENT, TYPE=C3D8, ELSET=EB2
       1,     325,     332,     338,     333,       1,     309,     317,     316
       2,     332,     331,     337,     338,     309,     310,     322,     317
       3,     331,     330,     341,     337,     310,     311,     318,     322
       4,     330,     329,     336,     341,     311,     312,     319,     318
       5,     329,     328,     335,     336,     312,     313,     324,     319
       6,     328,     327,     339,     335,     313,     314,     320,     324
       7,     327,     326,     334,     339,     314,     315,     321,     320
       8,     326,     325,     333,     334,     315,       1,     316,     321
       9,     339,     334,     333,     340,     320,     321,     316,     323
      10,     333,     338,     337,     340,     316,     317,     322,     323
      11,     339,     340,     336,     335,     320,     323,     319,     324
      12,     340,     337,     341,     336,     323,     322,     318,     319
**
********************************** P R O P E R T I E S ************************
*SOLID SECTION, ELSET=EB2, MATERIAL=Default-Steel
**
*END PART
**
**
**
********************************** E N D   P A R T S **********************************
**
**
********************************** A S S E M B L Y ************************************
**
*ASSEMBLY, NAME=ASSEMBLY1
**
*INSTANCE, NAME=Part-Default_1, PART=Part-Default
*END INSTANCE
**
*END ASSEMBLY
**
**
**
*MATERIAL, NAME = Default-Steel
*ELASTIC, TYPE=ISOTROPIC
2.068000e+05, 2.900000e-01
*DENSITY
7.000000e-06
*CONDUCTIVITY,TYPE=ISO
4.500000e-02
*SPECIFIC HEAT
5.000000e+02
**
**
************************************** H I S T O R Y *************************************
**
*PREPRINT
**
**************************************** S T E P 1 ***************************************
*STEP,INC=100,NAME=Default Set
**
*STATIC
1, 1, 1e-05, 1
**
**
**
**
*END STEP
